390362
  -OEChem-02212401123D

 62 67  0     1  0  0  0  0  0999 V2000
   -2.1102    0.5811   -1.5686 O   0  0  0  0  0  0  0  0  0  0  0  0
    2.0868   -0.5309    1.5627 O   0  0  0  0  0  0  0  0  0  0  0  0
   -1.0244    0.6987    2.3926 O   0  0  0  0  0  0  0  0  0  0  0  0
    1.0659   -0.8172   -2.4076 O   0  0  0  0  0  0  0  0  0  0  0  0
   -2.2893    2.9539    2.6729 O   0  0  0  0  0  0  0  0  0  0  0  0
    2.3716   -3.0596   -2.5822 O   0  0  0  0  0  0  0  0  0  0  0  0
   -4.3758    4.7230   -1.2033 O   0  0  0  0  0  0  0  0  0  0  0  0
    4.4232   -4.6464    1.3905 O   0  0  0  0  0  0  0  0  0  0  0  0
   -5.8762   -4.1042    0.6137 O   0  0  0  0  0  0  0  0  0  0  0  0
    5.8131    4.1305   -0.7355 O   0  0  0  0  0  0  0  0  0  0  0  0
   -0.6633   -0.3015    0.2363 C   0  0  2  0  0  0  0  0  0  0  0  0
    0.6561    0.2593   -0.2971 C   0  0  1  0  0  0  0  0  0  0  0  0
   -1.6642   -0.6106   -0.8960 C   0  0  1  0  0  0  0  0  0  0  0  0
    1.6332    0.6269    0.8385 C   0  0  2  0  0  0  0  0  0  0  0  0
   -1.2713    0.6989    1.1922 C   0  0  0  0  0  0  0  0  0  0  0  0
    1.2944   -0.7671   -1.2045 C   0  0  0  0  0  0  0  0  0  0  0  0
   -2.7985   -1.5512   -0.4894 C   0  0  0  0  0  0  0  0  0  0  0  0
    2.7588    1.5704    0.4149 C   0  0  0  0  0  0  0  0  0  0  0  0
   -2.1308    1.7313    0.5869 C   0  0  0  0  0  0  0  0  0  0  0  0
    2.1606   -1.7615   -0.5469 C   0  0  0  0  0  0  0  0  0  0  0  0
   -2.4635    1.6319   -0.7639 C   0  0  0  0  0  0  0  0  0  0  0  0
    2.4701   -1.6055    0.8042 C   0  0  0  0  0  0  0  0  0  0  0  0
   -2.5665    2.8210    1.3459 C   0  0  0  0  0  0  0  0  0  0  0  0
    2.6252   -2.8721   -1.2569 C   0  0  0  0  0  0  0  0  0  0  0  0
   -2.5043   -2.8046    0.0435 C   0  0  0  0  0  0  0  0  0  0  0  0
    2.4534    2.7979   -0.1694 C   0  0  0  0  0  0  0  0  0  0  0  0
   -4.1238   -1.1526   -0.6528 C   0  0  0  0  0  0  0  0  0  0  0  0
    4.0874    1.2002    0.6141 C   0  0  0  0  0  0  0  0  0  0  0  0
   -3.2096    2.6473   -1.3667 C   0  0  0  0  0  0  0  0  0  0  0  0
    3.2229   -2.5846    1.4565 C   0  0  0  0  0  0  0  0  0  0  0  0
   -3.3262    3.8227    0.7416 C   0  0  0  0  0  0  0  0  0  0  0  0
    3.3910   -3.8375   -0.6032 C   0  0  0  0  0  0  0  0  0  0  0  0
   -3.6426    3.7391   -0.6138 C   0  0  0  0  0  0  0  0  0  0  0  0
    3.6850   -3.6971    0.7527 C   0  0  0  0  0  0  0  0  0  0  0  0
   -3.5392   -3.6630    0.4144 C   0  0  0  0  0  0  0  0  0  0  0  0
    3.4806    3.6587   -0.5561 C   0  0  0  0  0  0  0  0  0  0  0  0
   -5.1590   -2.0109   -0.2819 C   0  0  0  0  0  0  0  0  0  0  0  0
    5.1148    2.0610    0.2274 C   0  0  0  0  0  0  0  0  0  0  0  0
   -4.8667   -3.2662    0.2519 C   0  0  0  0  0  0  0  0  0  0  0  0
    4.8113    3.2904   -0.3577 C   0  0  0  0  0  0  0  0  0  0  0  0
   -0.4698   -1.2130    0.8139 H   0  0  0  0  0  0  0  0  0  0  0  0
    0.4585    1.1458   -0.9111 H   0  0  0  0  0  0  0  0  0  0  0  0
   -1.1635   -1.1828   -1.6828 H   0  0  0  0  0  0  0  0  0  0  0  0
    1.1188    1.2259    1.5952 H   0  0  0  0  0  0  0  0  0  0  0  0
   -1.4773   -3.1385    0.1612 H   0  0  0  0  0  0  0  0  0  0  0  0
    1.4233    3.1102   -0.3158 H   0  0  0  0  0  0  0  0  0  0  0  0
   -4.4000   -0.1958   -1.0805 H   0  0  0  0  0  0  0  0  0  0  0  0
    4.3718    0.2646    1.0818 H   0  0  0  0  0  0  0  0  0  0  0  0
   -3.4629    2.5758   -2.4219 H   0  0  0  0  0  0  0  0  0  0  0  0
    3.4618   -2.4752    2.5118 H   0  0  0  0  0  0  0  0  0  0  0  0
   -3.6692    4.6733    1.3257 H   0  0  0  0  0  0  0  0  0  0  0  0
    3.7533   -4.7017   -1.1552 H   0  0  0  0  0  0  0  0  0  0  0  0
   -3.2983   -4.6398    0.8252 H   0  0  0  0  0  0  0  0  0  0  0  0
    3.2309    4.6153   -1.0074 H   0  0  0  0  0  0  0  0  0  0  0  0
   -6.1912   -1.6983   -0.4146 H   0  0  0  0  0  0  0  0  0  0  0  0
    6.1495    1.7706    0.3880 H   0  0  0  0  0  0  0  0  0  0  0  0
   -1.7849    2.1911    2.9939 H   0  0  0  0  0  0  0  0  0  0  0  0
    1.8620   -2.3169   -2.9402 H   0  0  0  0  0  0  0  0  0  0  0  0
   -4.5009    4.5036   -2.1425 H   0  0  0  0  0  0  0  0  0  0  0  0
    4.6583   -5.3435    0.7543 H   0  0  0  0  0  0  0  0  0  0  0  0
   -5.4927   -4.9271    0.9628 H   0  0  0  0  0  0  0  0  0  0  0  0
    5.4224    4.9334   -1.1214 H   0  0  0  0  0  0  0  0  0  0  0  0
  1 13  1  0  0  0  0
  1 21  1  0  0  0  0
  2 14  1  0  0  0  0
  2 22  1  0  0  0  0
  3 15  2  0  0  0  0
  4 16  2  0  0  0  0
  5 23  1  0  0  0  0
  5 57  1  0  0  0  0
  6 24  1  0  0  0  0
  6 58  1  0  0  0  0
  7 33  1  0  0  0  0
  7 59  1  0  0  0  0
  8 34  1  0  0  0  0
  8 60  1  0  0  0  0
  9 39  1  0  0  0  0
  9 61  1  0  0  0  0
 10 40  1  0  0  0  0
 10 62  1  0  0  0  0
 11 12  1  0  0  0  0
 11 13  1  0  0  0  0
 11 15  1  0  0  0  0
 11 41  1  0  0  0  0
 12 14  1  0  0  0  0
 12 16  1  0  0  0  0
 12 42  1  0  0  0  0
 13 17  1  0  0  0  0
 13 43  1  0  0  0  0
 14 18  1  0  0  0  0
 14 44  1  0  0  0  0
 15 19  1  0  0  0  0
 16 20  1  0  0  0  0
 17 25  2  0  0  0  0
 17 27  1  0  0  0  0
 18 26  2  0  0  0  0
 18 28  1  0  0  0  0
 19 21  1  0  0  0  0
 19 23  2  0  0  0  0
 20 22  1  0  0  0  0
 20 24  2  0  0  0  0
 21 29  2  0  0  0  0
 22 30  2  0  0  0  0
 23 31  1  0  0  0  0
 24 32  1  0  0  0  0
 25 35  1  0  0  0  0
 25 45  1  0  0  0  0
 26 36  1  0  0  0  0
 26 46  1  0  0  0  0
 27 37  2  0  0  0  0
 27 47  1  0  0  0  0
 28 38  2  0  0  0  0
 28 48  1  0  0  0  0
 29 33  1  0  0  0  0
 29 49  1  0  0  0  0
 30 34  1  0  0  0  0
 30 50  1  0  0  0  0
 31 33  2  0  0  0  0
 31 51  1  0  0  0  0
 32 34  2  0  0  0  0
 32 52  1  0  0  0  0
 35 39  2  0  0  0  0
 35 53  1  0  0  0  0
 36 40  2  0  0  0  0
 36 54  1  0  0  0  0
 37 39  1  0  0  0  0
 37 55  1  0  0  0  0
 38 40  1  0  0  0  0
 38 56  1  0  0  0  0
M  END
> <PUBCHEM_COMPOUND_CID>
390362

> <PUBCHEM_CONFORMER_RMSD>
0.8

> <PUBCHEM_CONFORMER_DIVERSEORDER>
3
6
9
24
21
29
13
2
5
11
16
31
27
1
7
30
25
4
20
23
19
10
17
8
22
28
18
12
15
14
26

> <PUBCHEM_MMFF94_PARTIAL_CHARGES>
58
1 -0.36
10 -0.53
11 0.06
12 0.06
13 0.42
14 0.42
15 0.42
16 0.42
17 -0.14
18 -0.14
19 0.09
2 -0.36
20 0.09
21 0.08
22 0.08
23 0.08
24 0.08
25 -0.15
26 -0.15
27 -0.15
28 -0.15
29 -0.15
3 -0.57
30 -0.15
31 -0.15
32 -0.15
33 0.08
34 0.08
35 -0.15
36 -0.15
37 -0.15
38 -0.15
39 0.08
4 -0.57
40 0.08
45 0.15
46 0.15
47 0.15
48 0.15
49 0.15
5 -0.53
50 0.15
51 0.15
52 0.15
53 0.15
54 0.15
55 0.15
56 0.15
57 0.45
58 0.45
59 0.45
6 -0.53
60 0.45
61 0.45
62 0.45
7 -0.53
8 -0.53
9 -0.53

> <PUBCHEM_EFFECTIVE_ROTOR_COUNT>
4.2

> <PUBCHEM_PHARMACOPHORE_FEATURES>
16
1 1 acceptor
1 10 donor
1 2 acceptor
1 3 acceptor
1 4 acceptor
1 5 donor
1 6 donor
1 7 donor
1 8 donor
1 9 donor
6 1 11 13 15 19 21 rings
6 17 25 27 35 37 39 rings
6 18 26 28 36 38 40 rings
6 19 21 23 29 31 33 rings
6 2 12 14 16 20 22 rings
6 20 22 24 30 32 34 rings

> <PUBCHEM_HEAVY_ATOM_COUNT>
40

> <PUBCHEM_ATOM_DEF_STEREO_COUNT>
0

> <PUBCHEM_ATOM_UDEF_STEREO_COUNT>
4

> <PUBCHEM_BOND_DEF_STEREO_COUNT>
0

> <PUBCHEM_BOND_UDEF_STEREO_COUNT>
0

> <PUBCHEM_ISOTOPIC_ATOM_COUNT>
0

> <PUBCHEM_COMPONENT_COUNT>
1

> <PUBCHEM_CACTVS_TAUTO_COUNT>
903

> <PUBCHEM_CONFORMER_ID>
0005F4DA00000003

> <PUBCHEM_MMFF94_ENERGY>
138.3048

> <PUBCHEM_FEATURE_SELFOVERLAP>
81.261

> <PUBCHEM_SHAPE_FINGERPRINT>
10050765 1 18408881802444090319
10190108 129 18052277351327379593
102385 1 18410577266522302591
10258939 38 17532917510577536873
11227688 84 18054495083028898255
11421498 54 18268147750115360027
11578080 2 18188498960659766532
12058002 1 17474046217266754989
12608794 3 17766571148503920561
12633046 712 18190735332845994934
12788726 201 18262786488948699409
13911987 19 17611763587772896597
140371 6 18116155648259409733
14068700 686 18339645658480837924
14394314 77 17831851353263856498
14725015 67 18052256486134545240
14955137 171 17551524666176583055
15219462 58 18042709297573127514
15439362 3 18196085548011072644
15444296 121 18125159325636264638
15684970 41 18051435993194800906
15815584 197 17976561711652536646
17492 89 18409721850908685963
19315092 285 16881000530491422241
19319366 153 18051964016283649830
20286276 3 18337106774283746487
20600515 1 17840024036124878954
21049683 271 17830734623412318509
23559900 14 17915453892328286966
283562 15 18195815295429978600
3380486 77 17691407404262971018
340366 18 18121499050957659689
460360 51 18337114445079194568
469060 322 18265342887722425145
57527452 28 17906744943928751492

> <PUBCHEM_SHAPE_MULTIPOLES>
764.49
11.16
7.32
1.73
0.25
0.11
-0.07
-0.26
0.09
-0.06
-0.01
-0.08
-0.01
-0.36

> <PUBCHEM_SHAPE_SELFOVERLAP>
1732.064

> <PUBCHEM_SHAPE_VOLUME>
392.5

> <PUBCHEM_COORDINATE_TYPE>
2
5
10

$$$$
