12308659
  -OEChem-02212401103D

 83 87  0     1  0  0  0  0  0999 V2000
   -6.7077   -1.2775   -0.0524 O   0  0  0  0  0  0  0  0  0  0  0  0
   -4.3283   -2.6831    0.5832 O   0  0  0  0  0  0  0  0  0  0  0  0
   -6.8559    1.5412    0.1925 O   0  0  0  0  0  0  0  0  0  0  0  0
    4.4501    3.1387   -0.4412 O   0  0  0  0  0  0  0  0  0  0  0  0
    3.2691    1.9102   -1.9551 O   0  0  0  0  0  0  0  0  0  0  0  0
   -0.2995    0.8546    0.2331 C   0  0  2  0  0  0  0  0  0  0  0  0
   -1.0249   -0.3016   -0.5534 C   0  0  1  0  0  0  0  0  0  0  0  0
   -2.5992   -0.1813   -0.7976 C   0  0  2  0  0  0  0  0  0  0  0  0
    1.1759    0.3084    0.7031 C   0  0  1  0  0  0  0  0  0  0  0  0
   -3.2798    0.2450    0.5488 C   0  0  1  0  0  0  0  0  0  0  0  0
   -1.1621    1.2831    1.4501 C   0  0  0  0  0  0  0  0  0  0  0  0
    1.9242   -0.3128   -0.4999 C   0  0  0  0  0  0  0  0  0  0  0  0
   -2.6352    1.5222    1.1238 C   0  0  0  0  0  0  0  0  0  0  0  0
   -4.8595    0.2668    0.5478 C   0  0  2  0  0  0  0  0  0  0  0  0
    3.4588   -0.4396   -0.4807 C   0  0  1  0  0  0  0  0  0  0  0  0
   -0.2173   -0.6715   -1.8155 C   0  0  0  0  0  0  0  0  0  0  0  0
   -3.1302   -1.6027   -1.2200 C   0  0  0  0  0  0  0  0  0  0  0  0
    1.9971    1.4683    1.3474 C   0  0  0  0  0  0  0  0  0  0  0  0
    4.1118    0.8553    0.0696 C   0  0  1  0  0  0  0  0  0  0  0  0
   -0.1239    2.1125   -0.6742 C   0  0  0  0  0  0  0  0  0  0  0  0
    3.5083    1.2280    1.4357 C   0  0  0  0  0  0  0  0  0  0  0  0
   -5.4232   -0.7950   -0.4506 C   0  0  1  0  0  0  0  0  0  0  0  0
    1.2649   -0.7204   -1.6035 C   0  0  0  0  0  0  0  0  0  0  0  0
   -4.5031   -1.9962   -0.6571 C   0  0  2  0  0  0  0  0  0  0  0  0
   -2.9570    0.7906   -1.9508 C   0  0  0  0  0  0  0  0  0  0  0  0
    1.0552   -0.8070    1.7837 C   0  0  0  0  0  0  0  0  0  0  0  0
    3.9915   -1.7423    0.2130 C   0  0  2  0  0  0  0  0  0  0  0  0
    5.6452    0.7303    0.1518 C   0  0  0  0  0  0  0  0  0  0  0  0
    5.5436   -1.7891    0.1873 C   0  0  1  0  0  0  0  0  0  0  0  0
   -5.4489    1.6472    0.1704 C   0  0  0  0  0  0  0  0  0  0  0  0
   -5.3521   -0.0161    1.9954 C   0  0  0  0  0  0  0  0  0  0  0  0
    6.1223   -0.5333    0.8486 C   0  0  0  0  0  0  0  0  0  0  0  0
    3.8808    1.9977   -0.9008 C   0  0  0  0  0  0  0  0  0  0  0  0
    3.3869   -3.0063   -0.4195 C   0  0  0  0  0  0  0  0  0  0  0  0
    6.1219   -3.0245    0.8873 C   0  0  0  0  0  0  0  0  0  0  0  0
   -0.9492   -1.1753    0.1077 H   0  0  0  0  0  0  0  0  0  0  0  0
   -3.0071   -0.5515    1.2596 H   0  0  0  0  0  0  0  0  0  0  0  0
   -0.7488    2.1883    1.9113 H   0  0  0  0  0  0  0  0  0  0  0  0
   -1.1495    0.5168    2.2287 H   0  0  0  0  0  0  0  0  0  0  0  0
   -3.1332    1.8084    2.0569 H   0  0  0  0  0  0  0  0  0  0  0  0
   -2.7432    2.3745    0.4470 H   0  0  0  0  0  0  0  0  0  0  0  0
    3.7910   -0.5300   -1.5281 H   0  0  0  0  0  0  0  0  0  0  0  0
   -0.3895    0.0436   -2.6246 H   0  0  0  0  0  0  0  0  0  0  0  0
   -0.5396   -1.6512   -2.1856 H   0  0  0  0  0  0  0  0  0  0  0  0
   -2.4187   -2.3805   -0.9152 H   0  0  0  0  0  0  0  0  0  0  0  0
   -3.1736   -1.6547   -2.3161 H   0  0  0  0  0  0  0  0  0  0  0  0
    1.6184    1.6767    2.3563 H   0  0  0  0  0  0  0  0  0  0  0  0
    1.8698    2.4018    0.7958 H   0  0  0  0  0  0  0  0  0  0  0  0
    0.1374    3.0014   -0.0905 H   0  0  0  0  0  0  0  0  0  0  0  0
    0.6482    1.9827   -1.4358 H   0  0  0  0  0  0  0  0  0  0  0  0
   -1.0344    2.3838   -1.2012 H   0  0  0  0  0  0  0  0  0  0  0  0
    3.9773    2.1352    1.8382 H   0  0  0  0  0  0  0  0  0  0  0  0
    3.7086    0.4443    2.1743 H   0  0  0  0  0  0  0  0  0  0  0  0
   -5.5823   -0.3326   -1.4304 H   0  0  0  0  0  0  0  0  0  0  0  0
    1.8301   -1.1271   -2.4397 H   0  0  0  0  0  0  0  0  0  0  0  0
   -4.9682   -2.7221   -1.3346 H   0  0  0  0  0  0  0  0  0  0  0  0
   -2.8917    1.8400   -1.6654 H   0  0  0  0  0  0  0  0  0  0  0  0
   -2.3310    0.6427   -2.8333 H   0  0  0  0  0  0  0  0  0  0  0  0
   -3.9786    0.6452   -2.3093 H   0  0  0  0  0  0  0  0  0  0  0  0
    0.5029   -0.4780    2.6669 H   0  0  0  0  0  0  0  0  0  0  0  0
    0.5805   -1.7163    1.4038 H   0  0  0  0  0  0  0  0  0  0  0  0
    2.0274   -1.1070    2.1769 H   0  0  0  0  0  0  0  0  0  0  0  0
    3.6979   -1.7428    1.2655 H   0  0  0  0  0  0  0  0  0  0  0  0
    6.0817    1.5926    0.6728 H   0  0  0  0  0  0  0  0  0  0  0  0
    6.0738    0.7450   -0.8606 H   0  0  0  0  0  0  0  0  0  0  0  0
    5.8780   -1.8149   -0.8589 H   0  0  0  0  0  0  0  0  0  0  0  0
   -5.1409    1.9893   -0.8202 H   0  0  0  0  0  0  0  0  0  0  0  0
   -5.1681    2.4212    0.8913 H   0  0  0  0  0  0  0  0  0  0  0  0
   -6.4442   -0.0429    2.0748 H   0  0  0  0  0  0  0  0  0  0  0  0
   -4.9806   -0.9760    2.3673 H   0  0  0  0  0  0  0  0  0  0  0  0
   -5.0057    0.7535    2.6935 H   0  0  0  0  0  0  0  0  0  0  0  0
    7.2183   -0.5626    0.8083 H   0  0  0  0  0  0  0  0  0  0  0  0
    5.8516   -0.5035    1.9111 H   0  0  0  0  0  0  0  0  0  0  0  0
    2.2954   -3.0091   -0.3513 H   0  0  0  0  0  0  0  0  0  0  0  0
    3.6677   -3.0928   -1.4744 H   0  0  0  0  0  0  0  0  0  0  0  0
    3.7168   -3.9125    0.0964 H   0  0  0  0  0  0  0  0  0  0  0  0
   -7.0231   -1.8857   -0.7424 H   0  0  0  0  0  0  0  0  0  0  0  0
   -5.2114   -2.9399    0.8994 H   0  0  0  0  0  0  0  0  0  0  0  0
    5.8940   -3.9412    0.3358 H   0  0  0  0  0  0  0  0  0  0  0  0
    7.2137   -2.9598    0.9529 H   0  0  0  0  0  0  0  0  0  0  0  0
    5.7283   -3.1256    1.9042 H   0  0  0  0  0  0  0  0  0  0  0  0
   -7.1409    1.0820   -0.6151 H   0  0  0  0  0  0  0  0  0  0  0  0
    4.3111    3.8904   -1.0558 H   0  0  0  0  0  0  0  0  0  0  0  0
  1 22  1  0  0  0  0
  1 77  1  0  0  0  0
  2 24  1  0  0  0  0
  2 78  1  0  0  0  0
  3 30  1  0  0  0  0
  3 82  1  0  0  0  0
  4 33  1  0  0  0  0
  4 83  1  0  0  0  0
  5 33  2  0  0  0  0
  6  7  1  0  0  0  0
  6  9  1  0  0  0  0
  6 11  1  0  0  0  0
  6 20  1  0  0  0  0
  7  8  1  0  0  0  0
  7 16  1  0  0  0  0
  7 36  1  0  0  0  0
  8 10  1  0  0  0  0
  8 17  1  0  0  0  0
  8 25  1  0  0  0  0
  9 12  1  0  0  0  0
  9 18  1  0  0  0  0
  9 26  1  0  0  0  0
 10 13  1  0  0  0  0
 10 14  1  0  0  0  0
 10 37  1  0  0  0  0
 11 13  1  0  0  0  0
 11 38  1  0  0  0  0
 11 39  1  0  0  0  0
 12 15  1  0  0  0  0
 12 23  2  0  0  0  0
 13 40  1  0  0  0  0
 13 41  1  0  0  0  0
 14 22  1  0  0  0  0
 14 30  1  0  0  0  0
 14 31  1  0  0  0  0
 15 19  1  0  0  0  0
 15 27  1  0  0  0  0
 15 42  1  0  0  0  0
 16 23  1  0  0  0  0
 16 43  1  0  0  0  0
 16 44  1  0  0  0  0
 17 24  1  0  0  0  0
 17 45  1  0  0  0  0
 17 46  1  0  0  0  0
 18 21  1  0  0  0  0
 18 47  1  0  0  0  0
 18 48  1  0  0  0  0
 19 21  1  0  0  0  0
 19 28  1  0  0  0  0
 19 33  1  0  0  0  0
 20 49  1  0  0  0  0
 20 50  1  0  0  0  0
 20 51  1  0  0  0  0
 21 52  1  0  0  0  0
 21 53  1  0  0  0  0
 22 24  1  0  0  0  0
 22 54  1  0  0  0  0
 23 55  1  0  0  0  0
 24 56  1  0  0  0  0
 25 57  1  0  0  0  0
 25 58  1  0  0  0  0
 25 59  1  0  0  0  0
 26 60  1  0  0  0  0
 26 61  1  0  0  0  0
 26 62  1  0  0  0  0
 27 29  1  0  0  0  0
 27 34  1  0  0  0  0
 27 63  1  0  0  0  0
 28 32  1  0  0  0  0
 28 64  1  0  0  0  0
 28 65  1  0  0  0  0
 29 32  1  0  0  0  0
 29 35  1  0  0  0  0
 29 66  1  0  0  0  0
 30 67  1  0  0  0  0
 30 68  1  0  0  0  0
 31 69  1  0  0  0  0
 31 70  1  0  0  0  0
 31 71  1  0  0  0  0
 32 72  1  0  0  0  0
 32 73  1  0  0  0  0
 34 74  1  0  0  0  0
 34 75  1  0  0  0  0
 34 76  1  0  0  0  0
 35 79  1  0  0  0  0
 35 80  1  0  0  0  0
 35 81  1  0  0  0  0
M  END
> <PUBCHEM_COMPOUND_CID>
12308659

> <PUBCHEM_CONFORMER_RMSD>
0.8

> <PUBCHEM_CONFORMER_DIVERSEORDER>
1
3
2

> <PUBCHEM_MMFF94_PARTIAL_CHARGES>
20
1 -0.68
12 -0.28
15 0.14
16 0.14
19 0.06
2 -0.68
22 0.28
23 -0.29
24 0.28
3 -0.68
30 0.28
33 0.66
4 -0.65
5 -0.57
55 0.15
77 0.4
78 0.4
82 0.4
83 0.5
9 0.14

> <PUBCHEM_EFFECTIVE_ROTOR_COUNT>
4.6

> <PUBCHEM_PHARMACOPHORE_FEATURES>
14
1 1 acceptor
1 1 donor
1 2 acceptor
1 2 donor
1 3 acceptor
1 3 donor
1 4 acceptor
1 5 acceptor
3 4 5 33 anion
6 15 19 27 28 29 32 rings
6 6 7 8 10 11 13 rings
6 6 7 9 12 16 23 rings
6 8 10 14 17 22 24 rings
6 9 12 15 18 19 21 rings

> <PUBCHEM_HEAVY_ATOM_COUNT>
35

> <PUBCHEM_ATOM_DEF_STEREO_COUNT>
12

> <PUBCHEM_ATOM_UDEF_STEREO_COUNT>
0

> <PUBCHEM_BOND_DEF_STEREO_COUNT>
0

> <PUBCHEM_BOND_UDEF_STEREO_COUNT>
0

> <PUBCHEM_ISOTOPIC_ATOM_COUNT>
0

> <PUBCHEM_COMPONENT_COUNT>
1

> <PUBCHEM_CACTVS_TAUTO_COUNT>
1

> <PUBCHEM_CONFORMER_ID>
00BBD0B300000001

> <PUBCHEM_MMFF94_ENERGY>
158.6679

> <PUBCHEM_FEATURE_SELFOVERLAP>
71.198

> <PUBCHEM_SHAPE_FINGERPRINT>
10 15 17203317915062785938
10554248 39 18272365344003005437
10906281 52 17489045773027896961
11135609 12 18410285879183046496
11456790 92 17917439714277412331
11488393 25 14834748797812639733
11578080 2 15938125372306295836
11719270 70 17703507714178611974
12107183 9 17838343981893238811
12107698 1 18260266304949998620
12166972 35 18334576850063973644
12236239 1 18411699889358802256
12422481 6 17703512099455940702
12616971 3 18408321098806141660
12633257 1 17418089910208157189
12788726 201 16988573389610160000
13224815 77 17703790331579374956
13533116 47 18334014991258442624
13726171 33 17272870937292258384
13782708 43 17530963562308567602
14341114 176 18343023259464401926
14849402 71 18272082864542322656
14856354 85 18339930428150846511
15131766 46 18192434297227906509
15142383 8 18342452595770952480
15183329 4 17632300072799019449
15238133 3 17060064713415667747
15250474 111 18129933585122512871
15361156 5 17822303395687033983
15788980 27 18259988175794665089
15799311 1 18339092578235700955
1601671 61 17418382406055352660
17349148 13 18333450962983575320
17844677 252 18333733498564163157
17857418 61 18272650129877215675
19319366 153 18343015623176626038
19377110 9 18202005438677943474
20511986 3 18272078401142315037
21033648 29 16877932871781364068
21267235 1 18130507440983958518
21859007 373 17972597685109678605
22393880 68 17458892765219119286
23522609 53 18057631895345524945
23559900 14 18342448240594753201
23569914 152 16451455207711595471
23569943 247 17170100457095680674
3004659 81 18273219677464717598
3411729 13 16342558734983781520
34797466 226 17095524040858154453
350125 39 18272086080950203996
3633792 109 18114730591607753655
3680242 22 18059581265052249362
392239 28 18271813410440497419
4073 2 18260832656427828474
4098825 35 18333448733785084260
439807 62 18412544340723727171
460360 51 17845107180915886108
46194498 28 17748544857888755300
5104073 3 17917710227326705123
6086070 43 16988264457176505177
70251023 43 18114177498092326392
7495541 125 18202280338038611920

> <PUBCHEM_SHAPE_MULTIPOLES>
690.94
15.83
2.78
1.64
6.05
0.67
-0.1
3.9
2.98
-2.37
-0.11
0.29
-0.24
-1.31

> <PUBCHEM_SHAPE_SELFOVERLAP>
1469.74

> <PUBCHEM_SHAPE_VOLUME>
378.6

> <PUBCHEM_COORDINATE_TYPE>
2
5
10

$$$$
